[TITLE]
prueba					

[JUNCTIONS]
;ID              	Elev        	Demand      	Pattern         
 n1              	9.30259     	0           	                	;
 n2              	9.52589     	0           	                	;
 n3              	17.28224    	0           	                	;
 n4              	21.6821     	0           	                	;
 n5              	13.39839    	0           	                	;
 n6              	9.72405     	0           	                	;
 n7              	13.78664    	0           	                	;
 n8              	13.26243    	0           	                	;
 n9              	17.60733    	0           	                	;
 n10             	17.10454    	0           	                	;
 n11             	7.48        	0           	                	;
 n12             	8.65        	0           	                	;
 n13             	13.94885    	0           	                	;
 n14             	9.13881     	0           	                	;
 n15             	8.54        	0           	                	;
 n16             	8.49        	0           	                	;
 n17             	8.8         	0           	                	;
 n18             	9.2042      	0           	                	;
 n19             	8.755       	0           	                	;
 n20             	12.0125     	0           	                	;
 n21             	12.09       	0           	                	;
 n22             	12.24       	0           	                	;
 n23             	10.046      	0           	                	;
 n24             	8.66185     	0           	                	;
 n25             	11.32667    	0           	                	;
 n26             	8.62        	0           	                	;
 n27             	9.4011      	0           	                	;
 n28             	10.49       	0           	                	;
 n29             	10.92       	0           	                	;
 n30             	8.66        	0           	                	;
 n31             	12.07333    	0           	                	;
 n32             	10.89458    	0           	                	;
 n33             	11.37811    	0           	                	;
 n34             	7.478       	0           	                	;
 n35             	8.65        	0           	                	;
 n36             	9.45275     	0           	                	;
 n37             	7.42333     	0           	                	;
 n38             	6.204       	0           	                	;
 n39             	5.388       	0           	                	;
 n40             	6.58112     	0           	                	;
 n41             	7.28        	0           	                	;
 n42             	8.475       	0           	                	;
 n43             	8.2         	0           	                	;
 n44             	8.89        	0           	                	;
 n45             	8.61534     	0           	                	;
 n46             	8.62667     	0           	                	;
 n47             	8.515       	0           	                	;
 n48             	8.65        	0           	                	;
 n49             	8.49937     	0           	                	;
 n50             	8.56723     	0           	                	;
 n51             	8.56536     	0           	                	;
 n52             	8.56        	0           	                	;
 n53             	8.724       	0           	                	;
 n54             	8.69258     	0           	                	;
 n55             	8.29        	0           	                	;
 n56             	8.77        	0           	                	;
 n57             	8.36        	0           	                	;
 n58             	8.06        	0           	                	;
 n59             	8.938       	0           	                	;
 n60             	8.00773     	0           	                	;
 n61             	8.85        	0           	                	;
 n62             	8.43        	0           	                	;
 n63             	9.22428     	0           	                	;
 n64             	7.45415     	0           	                	;
 n65             	8.938       	0           	                	;
 n66             	7.77        	0           	                	;
 n67             	7.945       	0           	                	;
 n68             	7.77878     	0           	                	;
 n69             	8.65        	0           	                	;
 n70             	7.6         	0           	                	;
 n71             	9.072       	0           	                	;
 n72             	9.26021     	0           	                	;
 n73             	7.5495      	0           	                	;
 n74             	8.45872     	0           	                	;
 n75             	9.02        	0           	                	;
 n76             	8.275       	0           	                	;
 n77             	8.35333     	0           	                	;
 n78             	8.8475      	0           	                	;
 n79             	8.15        	0           	                	;
 n80             	8.085       	0           	                	;
 n81             	8.23        	0           	                	;
 n82             	8.25511     	0           	                	;
 n83             	8.14747     	0           	                	;
 n84             	8.37814     	0           	                	;
 n85             	8.1525      	0           	                	;
 n86             	8.49333     	0           	                	;
 n87             	8.78        	0           	                	;
 n88             	8.22333     	0           	                	;
 n89             	8.13        	0           	                	;
 n90             	7.52905     	0           	                	;
 n91             	8.04        	0           	                	;
 n92             	8.3         	0           	                	;
 n93             	8.51        	0           	                	;
 n94             	8.0925      	0           	                	;
 n95             	8.07        	0           	                	;
 n96             	8.15        	0           	                	;
 n97             	8.176       	0           	                	;
 n98             	8.13        	0           	                	;
 n99             	6.77        	0           	                	;
 n100            	6.3         	0           	                	;
 n101            	6.0266      	0           	                	;
 n102            	5.98861     	0           	                	;
 n103            	6.02336     	0           	                	;
 n104            	7.69551     	0           	                	;
 n105            	7.602       	0           	                	;
 n106            	7.57461     	0           	                	;
 n107            	6.212       	0           	                	;
 n108            	6.25        	0           	                	;
 n109            	2.94        	0           	                	;
 n110            	6.27105     	0           	                	;
 n111            	7.46667     	0           	                	;
 n112            	7.70677     	0           	                	;
 n113            	7.76333     	0           	                	;
 n114            	7.69        	0           	                	;
 n115            	7.3         	0           	                	;
 n116            	7.17444     	0           	                	;
 n117            	7.2275      	0           	                	;
 n118            	7.222       	0           	                	;
 n119            	7.22077     	0           	                	;
 n120            	6.72        	0           	                	;
 n121            	6.265       	0           	                	;
 n122            	3.35        	0           	                	;
 n123            	4.465       	0           	                	;
 n124            	4.4975      	0           	                	;
 n125            	4.51        	0           	                	;
 n126            	4.55125     	0           	                	;
 n127            	3.855       	0           	                	;
 n128            	8.67        	0           	                	;
 n129            	8.81031     	0           	                	;
 n130            	8.578       	0           	                	;
 n131            	7.355       	0           	                	;
 n132            	8.135       	0           	                	;
 n133            	7.96033     	0           	                	;
 n134            	4.26489     	0           	                	;
 n135            	7.57        	0           	                	;
 n136            	8.12        	0           	                	;
 n137            	7.96        	0           	                	;
 n138            	7.814       	0           	                	;
 n139            	7.56557     	0           	                	;
 n140            	7.716       	0           	                	;
 n141            	7.74        	0           	                	;
 n142            	7.45028     	0           	                	;
 n143            	8.115       	0           	                	;
 n144            	8.64882     	0           	                	;
 n145            	7.78        	0           	                	;
 n146            	8.42648     	0           	                	;
 n147            	8.488       	0           	                	;
 n148            	8.28        	0           	                	;
 n149            	8.27667     	0           	                	;
 n150            	8.32557     	0           	                	;
 n151            	7.76        	0           	                	;
 n152            	7.905       	0           	                	;
 n153            	8.33        	0           	                	;
 n154            	8.455       	0           	                	;
 n155            	7.78467     	0           	                	;
 n156            	7.37743     	0           	                	;
 n157            	6.92        	0           	                	;
 n158            	6.75        	0           	                	;
 n159            	6.47547     	0           	                	;
 n160            	5.905       	0           	                	;
 n161            	4.78        	0           	                	;
 n162            	8.16        	0           	                	;
 n163            	8.815       	0           	                	;
 n164            	7.60102     	0           	                	;
 n165            	7.97        	0           	                	;
 n166            	8.238       	0           	                	;
 n167            	8.11545     	0           	                	;
 n168            	7.75333     	0           	                	;
 n169            	7.945       	0           	                	;
 n170            	7.905       	0           	                	;
 n171            	7.71        	0           	                	;
 n172            	7.75333     	0           	                	;
 n173            	8.14        	0           	                	;
 n174            	8.63667     	0           	                	;
 n175            	8.6825      	0           	                	;
 n176            	8.785       	0           	                	;
 n177            	8.8         	0           	                	;
 n178            	8.828       	0           	                	;
 n179            	0.65538     	0           	                	;
 n180            	8.09472     	0           	                	;
 n181            	7.54        	0           	                	;
 n182            	8.8         	0           	                	;
 n183            	8.7625      	0           	                	;
 n184            	8.5225      	0           	                	;
 n185            	8.3         	0           	                	;
 n186            	7.98        	0           	                	;
 n187            	7.618       	0           	                	;
 n188            	7.43        	0           	                	;
 n189            	8.73        	0           	                	;
 n190            	8.8525      	0           	                	;
 n191            	8.2825      	0           	                	;
 n192            	5.925       	0           	                	;
 n193            	5.93        	0           	                	;
 n194            	3.31949     	0           	                	;
 n195            	3.085       	0           	                	;
 n196            	4.04        	0           	                	;
 n197            	3.965       	0           	                	;
 n198            	4.72        	0           	                	;
 n199            	6.51        	0           	                	;
 n200            	8.444       	0           	                	;
 n201            	8.78        	0           	                	;
 n202            	8.85        	0           	                	;
 n203            	8.82        	0           	                	;
 n204            	8.63        	0           	                	;
 n205            	8.28        	0           	                	;
 n206            	7.64        	0           	                	;
 n207            	8.46        	0           	                	;
 n208            	8.15        	0           	                	;
 n209            	7.975       	0           	                	;
 n210            	6.49        	0           	                	;
 n211            	5.48375     	0           	                	;
 n212            	3.744       	0           	                	;
 n213            	5.38257     	0           	                	;
 n214            	6.48489     	0           	                	;
 n215            	6.73        	0           	                	;
 n216            	6.2         	0           	                	;
 n217            	7.14833     	0           	                	;
 n218            	6.6         	0           	                	;
 n219            	6.38        	0           	                	;
 n220            	6.828       	0           	                	;
 n221            	7.41        	0           	                	;
 n222            	8.41759     	0           	                	;
 n223            	6.535       	0           	                	;
 n224            	7.618       	0           	                	;
 n225            	8.25        	0           	                	;
 n226            	6.21339     	0           	                	;
 n227            	5.98        	0           	                	;
 n228            	8.188       	0           	                	;
 n229            	8.22        	0           	                	;
 n230            	8.31608     	0           	                	;
 n231            	8.0403      	0           	                	;
 n232            	7.535       	0           	                	;
 n233            	7.61333     	0           	                	;
 n234            	8.52375     	0           	                	;
 n235            	8.18137     	0           	                	;
 n236            	8.17        	0           	                	;
 n237            	7.48        	0           	                	;
 n238            	4.59        	0           	                	;
 n239            	8.46        	0           	                	;
 n240            	7.494       	0           	                	;
 n241            	9.0425      	0           	                	;
 n242            	7.292       	0           	                	;
 n243            	8.86282     	0           	                	;
 n244            	8.29        	0           	                	;
 n245            	8.2925      	0           	                	;
 n246            	8.24        	0           	                	;
 n247            	8.33        	0           	                	;
 n248            	8.51717     	0           	                	;
 n249            	8.7175      	0           	                	;
 n250            	8.39        	0           	                	;
 n251            	8.51        	0           	                	;
 n252            	8.45        	0           	                	;
 n253            	8.5475      	0           	                	;
 n254            	8.24        	0           	                	;
 n255            	8.41333     	0           	                	;
 n256            	8.65        	0           	                	;
 n257            	7.69        	0           	                	;
 n258            	7.355       	0           	                	;
 n259            	6.58        	0           	                	;
 n260            	6.255       	0           	                	;
 n261            	6.04        	0           	                	;
 n262            	5.26667     	0           	                	;
 n263            	8.754       	0           	                	;
 n264            	6.825       	0           	                	;
 n265            	7.04        	0           	                	;
 n266            	8.39        	0           	                	;
 n267            	6.95        	0           	                	;
 n268            	4.64444     	0           	                	;
 n269            	7.2202      	0           	                	;
 n270            	8.26074     	0           	                	;
 n271            	8.24109     	0           	                	;
 n272            	4.97        	0           	                	;
 n273            	8.04        	0           	                	;
 n274            	7.98        	0           	                	;
 n275            	2.325       	0           	                	;
 n276            	2.37333     	0           	                	;
 n277            	2.52        	0           	                	;
 n278            	2.522       	0           	                	;
 n279            	2.316       	0           	                	;
 n280            	2.625       	0           	                	;
 n281            	2.38333     	0           	                	;
 n282            	2.29        	0           	                	;
 n283            	6.48        	0           	                	;
 n284            	6.8         	0           	                	;
 n285            	3.4425      	0           	                	;
 n286            	1.74        	0           	                	;
 n287            	2.49        	0           	                	;
 n288            	3.245       	0           	                	;
 n289            	3.3         	0           	                	;
 n290            	3.02        	0           	                	;
 n291            	3.24        	0           	                	;
 n292            	3.11782     	0           	                	;
 n293            	2.89091     	0           	                	;
 n294            	2.15667     	0           	                	;
 n295            	2.235       	0           	                	;
 n296            	2.36409     	0           	                	;
 n297            	1.77249     	0           	                	;
 n298            	2.74667     	0           	                	;
 n299            	3.06        	0           	                	;
 n300            	1.74        	0           	                	;
 n301            	2.40855     	0           	                	;
 n302            	2.89825     	0           	                	;
 n303            	2.38642     	0           	                	;
 n304            	2.49        	0           	                	;
 n305            	2.45        	0           	                	;
 n306            	2.435       	0           	                	;
 n307            	1.97        	0           	                	;
 n308            	1.88        	0           	                	;
 n309            	1.94        	0           	                	;
 n310            	2.01321     	0           	                	;
 n311            	2.16629     	0           	                	;
 n312            	1.82789     	0           	                	;
 n313            	1.586       	0           	                	;
 n314            	1.9956      	0           	                	;
 n315            	1.56148     	0           	                	;
 n316            	1.68        	0           	                	;
 n317            	2.11988     	0           	                	;
 n318            	2.495       	0           	                	;
 n319            	2.46        	0           	                	;
 n320            	1.942       	0           	                	;
 n321            	2.655       	0           	                	;
 n322            	2.49        	0           	                	;
 n323            	1.9         	0           	                	;
 n324            	1.69626     	0           	                	;
 n325            	1.624       	0           	                	;
 n326            	1.905       	0           	                	;
 n327            	1.78349     	0           	                	;
 n328            	2.18        	0           	                	;
 n329            	2.05529     	0           	                	;
 n330            	1.82        	0           	                	;
 n331            	1.79933     	0           	                	;
 n332            	1.58        	0           	                	;
 n333            	1.55        	0           	                	;
 n334            	1.568       	0           	                	;
 n335            	1.625       	0           	                	;
 n336            	1.72598     	0           	                	;
 n337            	3.19865     	0           	                	;
 n338            	1.63901     	0           	                	;
 n339            	1.68362     	0           	                	;
 n340            	2.34        	0           	                	;
 n341            	1.73333     	0           	                	;
 n342            	2.43        	0           	                	;
 n343            	1.74        	0           	                	;
 n344            	1.67386     	0           	                	;
 n345            	1.51        	0           	                	;
 n346            	1.54667     	0           	                	;
 n347            	1.67658     	0           	                	;
 n348            	1.545       	0           	                	;
 n349            	1.61        	0           	                	;
 n350            	1.68526     	0           	                	;
 n351            	2.246       	0           	                	;
 n352            	1.97        	0           	                	;
 n353            	1.86567     	0           	                	;
 n354            	1.81        	0           	                	;
 n355            	1.73        	0           	                	;
 n356            	1.75        	0           	                	;
 n357            	1.96        	0           	                	;
 n358            	1.9597      	0           	                	;
 n359            	1.84298     	0           	                	;
 n360            	1.84        	0           	                	;
 n361            	1.79677     	0           	                	;
 n362            	1.68667     	0           	                	;
 n363            	1.87        	0           	                	;
 n364            	2.6825      	0           	                	;
 n365            	2.48        	0           	                	;
 n366            	2.46        	0           	                	;
 n367            	2.57        	0           	                	;
 n368            	2.685       	0           	                	;
 n369            	3.11        	0           	                	;
 n370            	2.93333     	0           	                	;
 n371            	2.02364     	0           	                	;
 n372            	1.91        	0           	                	;
 n373            	1.905       	0           	                	;
 n374            	3.11333     	0           	                	;
 n375            	2.66        	0           	                	;
 n376            	1.85571     	0           	                	;
 n377            	2.44576     	0           	                	;
 n378            	2.43        	0           	                	;
 n379            	2.525       	0           	                	;
 n380            	2.84        	0           	                	;
 n381            	3.05881     	0           	                	;
 n382            	2.91704     	0           	                	;
 n383            	1.695       	0           	                	;
 n384            	2.22        	0           	                	;
 n385            	2.18333     	0           	                	;
 n386            	2.24        	0           	                	;
 n387            	1.85        	0           	                	;
 n388            	1.73        	0           	                	;
 n389            	1.57        	0           	                	;
 n390            	1.92599     	0           	                	;
 n391            	1.53833     	0           	                	;
 n392            	1.688       	0           	                	;
 n393            	1.73417     	0           	                	;
 n394            	1.91        	0           	                	;
 n395            	2.02615     	0           	                	;
 n396            	2.11        	0           	                	;
 n397            	1.956       	0           	                	;
 n398            	1.68        	0           	                	;
 n399            	1.665       	0           	                	;
 n400            	1.96667     	0           	                	;
 n401            	2.01        	0           	                	;
 n402            	1.38        	0           	                	;
 n403            	1.48        	0           	                	;
 n404            	1.55667     	0           	                	;
 n405            	1.90307     	0           	                	;
 n406            	1.75734     	0           	                	;
 n407            	2.15416     	0           	                	;
 n408            	2.02        	0           	                	;
 n409            	2           	0           	                	;
 n410            	1.87        	0           	                	;
 n411            	1.8         	0           	                	;
 n412            	1.64667     	0           	                	;
 n413            	1.57        	0           	                	;
 n414            	1.52        	0           	                	;
 n415            	1.7325      	0           	                	;
 n416            	1.88078     	0           	                	;
 n417            	1.71        	0           	                	;
 n418            	1.88        	0           	                	;
 n419            	1.83        	0           	                	;
 n420            	1.69865     	0           	                	;
 n421            	1.778       	0           	                	;
 n422            	1.65235     	0           	                	;
 n423            	1.72667     	0           	                	;
 n424            	1.682       	0           	                	;
 n425            	2.32        	0           	                	;
 n426            	2.32        	0           	                	;
 n427            	1.77        	0           	                	;
 n428            	1.825       	0           	                	;
 n429            	1.80212     	0           	                	;
 n430            	1.694       	0           	                	;
 n431            	1.81        	0           	                	;
 n432            	1.96745     	0           	                	;
 n433            	1.68        	0           	                	;
 n434            	2.045       	0           	                	;
 n435            	1.38        	0           	                	;
 n436            	1.95        	0           	                	;
 n437            	2.05444     	0           	                	;
 n438            	1.94        	0           	                	;
 n439            	1.77        	0           	                	;
 n440            	1.93        	0           	                	;
 n441            	1.78        	0           	                	;
 n442            	2.01091     	0           	                	;
 n443            	1.955       	0           	                	;
 n444            	3.205       	0           	                	;
 n445            	3.36        	0           	                	;
 n446            	2.4         	0           	                	;
 n447            	2.41514     	0           	                	;
 n448            	2.38167     	0           	                	;
 n449            	2.33        	0           	                	;
 n450            	2.285       	0           	                	;
 n451            	2.365       	0           	                	;
 n452            	1.94        	0           	                	;
 n453            	3.355       	0           	                	;
 n454            	3.57        	0           	                	;
 n455            	3           	0           	                	;
 n456            	4.06        	0           	                	;
 n457            	1.92        	0           	                	;
 n458            	2.15        	0           	                	;
 n459            	1.77        	0           	                	;
 n460            	1.74        	0           	                	;
 n461            	1.68        	0           	                	;
 n462            	1.93        	0           	                	;
 n463            	1.9443      	0           	                	;
 n464            	1.95458     	0           	                	;
 n465            	1.92868     	0           	                	;
 n466            	1.635       	0           	                	;
 n467            	1.94878     	0           	                	;